Version 4
SHEET 1 1112 680
WIRE 400 -208 64 -208
WIRE 480 -208 400 -208
WIRE 672 -208 480 -208
WIRE 480 -176 480 -208
WIRE 672 -160 672 -208
WIRE 384 -64 336 -64
WIRE 480 -64 480 -112
WIRE 480 -48 480 -64
WIRE 336 -32 336 -64
WIRE 64 -16 64 -208
WIRE 304 -16 192 -16
WIRE 416 0 368 0
WIRE 672 0 672 -80
WIRE 304 16 272 16
WIRE -304 32 -432 32
WIRE 0 32 -304 32
WIRE 336 80 336 32
WIRE 400 80 400 -208
WIRE 400 80 336 80
WIRE -432 112 -432 32
WIRE 64 144 64 80
WIRE 128 144 64 144
WIRE 192 144 192 -16
WIRE 192 144 128 144
WIRE 272 144 272 16
WIRE 432 144 272 144
WIRE 480 144 480 48
WIRE 480 144 432 144
WIRE 64 192 64 144
WIRE 192 208 192 144
WIRE 480 208 480 144
WIRE -432 336 -432 192
WIRE 64 336 64 272
WIRE 64 336 -432 336
WIRE 128 336 64 336
WIRE 192 336 192 272
WIRE 192 336 128 336
WIRE 384 336 384 -64
WIRE 384 336 192 336
WIRE 480 336 480 288
WIRE 480 336 384 336
WIRE 576 336 480 336
WIRE 128 400 128 336
FLAG 128 400 0
FLAG 672 0 0
FLAG 128 144 RC_timer
FLAG -304 32 10V_pulse_input
FLAG 480 -64 Collector
FLAG 432 144 RSense
SYMBOL voltage -432 96 R0
WINDOW 123 0 0 Left 2
WINDOW 39 0 0 Left 2
SYMATTR InstName V1
SYMATTR Value PULSE(0 10 0 1u 1u 1n)
SYMBOL npn 0 -16 R0
SYMATTR InstName Q1
SYMBOL res 48 176 R0
SYMATTR InstName R1
SYMATTR Value 100k
SYMBOL cap 176 208 R0
SYMATTR InstName C1
SYMATTR Value 20µ
SYMBOL voltage 672 -176 R0
WINDOW 123 0 0 Left 2
WINDOW 39 0 0 Left 2
SYMATTR InstName V2
SYMATTR Value 5
SYMBOL LED 464 -176 R0
SYMATTR InstName D1
SYMBOL npn 416 -48 R0
SYMATTR InstName Q2
SYMBOL res 464 192 R0
SYMATTR InstName R2
SYMATTR Value {R}
SYMBOL Opamps\\OP747 336 64 M180
SYMATTR InstName U2
TEXT -640 168 Left 2 !.tran 10s
TEXT 568 288 Left 2 !.step param R 1 100 10
TEXT 576 248 Left 2 !;op 10s
